OPT_V8/Brussels_test_1203-1157/powerflow_results_t2.txt
Pandapower Network Debug Info
==================================================

BUS:
       vm_pu  va_degree      p_mw    q_mvar
0   0.994225   0.098877  0.000822  0.000814
1   0.990604   0.161713  0.001233  0.001627
2   0.987354   0.223155  0.001644  0.002441
3   0.991130   0.163041  0.002055  0.003255
4   0.991276   0.183763  0.002465  0.004068
5   0.993328   0.121332  0.002876  0.004882
6   0.991905   0.123597  0.000986  0.000814
7   0.997957   0.019586  0.001479  0.001627
8   0.998199   0.032562  0.001808  0.002441
9   0.999906   0.000593  0.008218  0.008137
10  0.999895   0.000623  0.009040  0.007323
11  0.999887   0.000659  0.009862  0.008950
12  0.999813   0.001160  0.008218  0.004882
13  0.999791   0.001261  0.009862  0.008137
14  0.999798   0.001249  0.010684  0.009764
15  0.999942   0.000448  0.000000  0.000000
16  0.999942   0.000453  0.000000  0.000000
17  0.999817   0.001190  0.000000  0.000000
18  0.999817   0.001198  0.000000  0.000000
19  1.000000   0.000000 -0.032976 -0.037612
20  1.000000   0.000005  0.000000  0.000000
21  1.000000   0.000000 -0.038487 -0.041684
22  1.000000   0.000006  0.000000  0.000000
--------------------------------------------------

LINE:
    p_from_mw  q_from_mvar   p_to_mw  q_to_mvar         pl_mw       ql_mvar  i_from_ka   i_to_ka      i_ka  vm_from_pu  va_from_degree  vm_to_pu  va_to_degree  loading_percent
0    0.032966     0.033612 -0.032964  -0.033611  2.168108e-06  1.690509e-06   0.001812  0.001812  0.001812    1.000000        0.000005  0.999942      0.000448         0.787883
1    0.038477     0.037684 -0.038470  -0.037678  7.802283e-06  6.083568e-06   0.002073  0.002073  0.002073    1.000000        0.000006  0.999817      0.001190         0.901292
2    0.027121     0.024411 -0.027120  -0.024411  1.029718e-06  8.028880e-07   0.001405  0.001405  0.001405    0.999942        0.000448  0.999906      0.000593         0.610675
3    0.008218     0.004882 -0.008218  -0.004882  3.161014e-08  2.464695e-08   0.000368  0.000368  0.000368    0.999817        0.001190  0.999813      0.001160         0.159995
4    0.020546     0.017901 -0.020545  -0.017901  4.061873e-07  3.167110e-07   0.001049  0.001049  0.001049    0.999817        0.001190  0.999798      0.001249         0.456112
5    0.005833     0.008200 -0.005786  -0.008163  4.736606e-05  3.693209e-05   0.014525  0.014525  0.014525    0.999942        0.000453  0.994225      0.098877         6.315270
6    0.003901     0.005726 -0.003864  -0.005697  3.725718e-05  2.905004e-05   0.010002  0.010002  0.010002    0.999817        0.001198  0.993328      0.121332         4.348874
7    0.001483     0.001630 -0.001479  -0.001627  3.280958e-06  2.558217e-06   0.003181  0.003181  0.003181    0.999817        0.001198  0.997957      0.019586         1.382944
8    0.004312     0.006539 -0.004301  -0.006531  1.055364e-05  8.228848e-06   0.011308  0.011308  0.011308    0.999817        0.001198  0.998199      0.032562         4.916629
9   -0.018902    -0.016274  0.018902   0.016274  2.151828e-07  1.677815e-07   0.000960  0.000960  0.000960    0.999895        0.000623  0.999906      0.000593         0.417443
10  -0.009862    -0.008950  0.009862   0.008951  8.676236e-08  6.765004e-08   0.000513  0.000513  0.000513    0.999887        0.000659  0.999895      0.000623         0.222896
11   0.009862     0.008137 -0.009862  -0.008137  7.997655e-08  6.235903e-08   0.000492  0.000492  0.000492    0.999798        0.001249  0.999791      0.001261         0.214002
12  -0.002884    -0.004075  0.002899   0.004086  1.502575e-05  1.171582e-05   0.007274  0.007274  0.007274    0.990604        0.161713  0.994225      0.098877         3.162615
13  -0.002055    -0.003255  0.002065   0.003263  1.006904e-05  7.850998e-06   0.005605  0.005605  0.005605    0.991130        0.163041  0.994225      0.098877         2.437025
14  -0.001644    -0.002441  0.001652   0.002447  8.035858e-06  6.265691e-06   0.004302  0.004302  0.004302    0.987354        0.223155  0.990604      0.161713         1.870427
15   0.002493     0.004090 -0.002465  -0.004068  2.802210e-05  2.184929e-05   0.006927  0.006927  0.006927    0.998199        0.032562  0.991276      0.183763         3.011622
16  -0.000986    -0.000814  0.000988   0.000815  1.446444e-06  1.127816e-06   0.001860  0.001860  0.001860    0.991905        0.123597  0.993328      0.121332         0.808886
--------------------------------------------------

TRAFO:
    p_hv_mw  q_hv_mvar   p_lv_mw  q_lv_mvar    pl_mw  ql_mvar   i_hv_ka   i_lv_ka  vm_hv_pu  va_hv_degree  vm_lv_pu  va_lv_degree  loading_percent
0  0.005843   0.009199 -0.005833  -0.008200  0.00001    0.001  0.000419  0.014525  0.999942      0.000448  0.999942      0.000453         0.108988
1  0.009706   0.014895 -0.009696  -0.013895  0.00001    0.001  0.000684  0.024461  0.999817      0.001190  0.999817      0.001198         0.177813
2  0.032976   0.037612 -0.032966  -0.033612  0.00001    0.004  0.000413  0.001812  1.000000      0.000000  1.000000      0.000005         0.125053
3  0.038487   0.041684 -0.038477  -0.037684  0.00001    0.004  0.000468  0.002073  1.000000      0.000000  1.000000      0.000006         0.141838
--------------------------------------------------
